Circuit: * C:\users\rsholmes\Desktop\Next modules\Envelope follower\ARP Envelope follower\Kosmo version\arpenvfol.asc

WARNING: Specified period is not longer than the sum of Trise, Tfall, and Ton for v4.  Increasing period to 1.002
Early termination of direct N-R iteration.
Direct Newton iteration failed to find .op point.  (Use ".option noopiter" to skip.)
Starting Gmin stepping
Gmin = 10
vernier = 0.5
vernier = 0.25
vernier = 0.125
Gmin = 5.5165
vernier = 0.0625
vernier = 0.03125
vernier = 0.015625
vernier = 0.0078125
Gmin = 5.49501
vernier = 0.00390625
vernier = 0.00195313
vernier = 0.000976563
vernier = 0.000488281
Gmin = 5.50104
Gmin = 0
Gmin stepping failed

Starting source stepping with srcstepmethod=0
Source Step = 3.0303%
Source Step = 33.3333%
Source Step = 63.6364%
Source Step = 93.9394%
Source stepping succeeded in finding the operating point.


Date: Sun Feb 13 20:14:13 2022
Total elapsed time: 3.555 seconds.

tnom = 27
temp = 27
method = modified trap
totiter = 148315
traniter = 146646
tranpoints = 51840
accept = 36719
rejected = 15121
matrix size = 88
fillins = 544
solver = Normal
Thread vector: 5.5/4.6[2] 1.8/1.9[1] 1.4/1.7[1] 0.7/2.1[1]  2592/500
Matrix Compiler1: 54.74 KB object code size  7.2/3.8/[2.1]
Matrix Compiler2: 17.02 KB object code size  13.8/5.3/[1.6]

